/*--------------------------------*- C++ -*----------------------------------*\
| =========                 |                                                 |
| \\      /  F ield         | OpenFOAM: The Open Source CFD Toolbox           |
|  \\    /   O peration     | Version:  2306                                  |
|   \\  /    A nd           | Website:  www.openfoam.com                      |
|    \\/     M anipulation  |                                                 |
\*---------------------------------------------------------------------------*/
FoamFile
{
    version     2.0;
    format      ascii;
    arch        "LSB;label=32;scalar=64";
    class       volScalarField;
    location    "0";
    object      p;
}
// * * * * * * * * * * * * * * * * * * * * * * * * * * * * * * * * * * * * * //

dimensions      [1 -1 -2 0 0 0 0];

internalField   uniform 1;

boundaryField
{
    side1
    {
        type            empty;
    }
    side2
    {
        type            empty;
    }
    outFlow
    {
        type            zeroGradient;
    }
    airfoil
    {
        type            zeroGradient;
    }
    inFlow
    {
        type            inletOutlet;
        inletValue      uniform 1;
        value           uniform 1;
    }
}


// ************************************************************************* //
